Version 4.1
SHEET 1 1368 680
WIRE 688 16 640 16
WIRE 800 16 768 16
WIRE -656 80 -704 80
WIRE -592 80 -656 80
WIRE -464 80 -512 80
WIRE -464 96 -464 80
WIRE 96 96 -176 96
WIRE 176 144 176 96
WIRE 272 144 176 144
WIRE 352 144 272 144
WIRE 496 144 432 144
WIRE 528 144 496 144
WIRE 640 144 640 16
WIRE 640 144 608 144
WIRE 672 144 640 144
WIRE 496 160 496 144
WIRE 800 160 800 16
WIRE 800 160 736 160
WIRE 832 160 800 160
WIRE 672 176 640 176
WIRE -656 192 -656 80
WIRE -640 192 -656 192
WIRE 272 192 272 144
WIRE -464 208 -464 176
WIRE -464 208 -576 208
WIRE -416 208 -464 208
WIRE -272 208 -336 208
WIRE 96 208 -272 208
WIRE 176 208 176 144
WIRE -640 224 -656 224
WIRE 640 224 640 176
WIRE -272 256 -272 208
WIRE 944 256 944 224
WIRE 1088 256 1088 208
WIRE 272 288 272 256
WIRE -656 352 -656 224
WIRE -656 352 -672 352
WIRE -592 352 -656 352
WIRE -464 352 -464 208
WIRE -464 352 -512 352
WIRE -272 352 -272 320
WIRE 944 368 944 336
WIRE 1088 384 1088 336
FLAG 1088 208 V+
FLAG 1088 384 0
FLAG 944 224 V-
FLAG 944 368 0
FLAG -256 96 0
FLAG 272 288 0
FLAG 496 224 0
FLAG 832 160 out
FLAG 704 192 V-
FLAG 704 128 V+
FLAG 640 224 0
FLAG -608 240 V-
FLAG -608 176 V+
FLAG -752 352 0
FLAG -768 80 0
FLAG -272 352 0
SYMBOL voltage 1088 240 R0
SYMATTR InstName V1
SYMATTR Value 2.7
SYMBOL voltage 944 352 R180
WINDOW 0 24 96 Left 2
WINDOW 3 24 16 Left 2
SYMATTR InstName V2
SYMATTR Value 3.3
SYMBOL voltage -160 96 R90
WINDOW 0 -32 56 VBottom 2
WINDOW 3 32 56 VTop 2
WINDOW 123 0 0 Left 0
WINDOW 39 0 0 Left 0
SYMATTR InstName V4
SYMATTR Value SINE(0 2.5 64k)
SYMBOL res 192 80 R90
WINDOW 0 0 56 VBottom 2
WINDOW 3 32 56 VTop 2
SYMATTR InstName R1
SYMATTR Value 1k
SYMBOL res 192 192 R90
WINDOW 0 0 56 VBottom 2
WINDOW 3 32 56 VTop 2
SYMATTR InstName R2
SYMATTR Value 1k
SYMBOL diode 256 192 R0
SYMATTR InstName D1
SYMATTR Value BAT54
SYMATTR Description Diode
SYMATTR Type diode
SYMBOL res 448 128 R90
WINDOW 0 0 56 VBottom 2
WINDOW 3 32 56 VTop 2
SYMATTR InstName R3
SYMATTR Value 1k
SYMBOL cap 480 160 R0
SYMATTR InstName C1
SYMATTR Value 1µ
SYMBOL OpAmps\\opamp2 704 96 R0
SYMATTR InstName U1
SYMATTR Value TLV9052
SYMBOL res 784 0 R90
WINDOW 0 0 56 VBottom 2
WINDOW 3 32 56 VTop 2
SYMATTR InstName R4
SYMATTR Value 10k
SYMBOL res 624 128 R90
WINDOW 0 0 56 VBottom 2
WINDOW 3 32 56 VTop 2
SYMATTR InstName R5
SYMATTR Value 470
SYMBOL OpAmps\\opamp2 -608 144 R0
SYMATTR InstName U2
SYMATTR Value TLV9052
SYMBOL res -496 64 R90
WINDOW 0 0 56 VBottom 2
WINDOW 3 32 56 VTop 2
SYMATTR InstName R6
SYMATTR Value 100
SYMBOL res -496 336 R90
WINDOW 0 0 56 VBottom 2
WINDOW 3 32 56 VTop 2
SYMATTR InstName R7
SYMATTR Value 1k
SYMBOL res -656 336 R90
WINDOW 0 0 56 VBottom 2
WINDOW 3 32 56 VTop 2
SYMATTR InstName R8
SYMATTR Value 1k
SYMBOL cap -704 64 R90
WINDOW 0 0 32 VBottom 2
WINDOW 3 32 32 VTop 2
SYMATTR InstName C2
SYMATTR Value 26.7n
SYMBOL res -448 192 R180
WINDOW 0 36 76 Left 2
WINDOW 3 36 40 Left 2
SYMATTR InstName R9
SYMATTR Value 100
SYMBOL cap -256 320 R180
WINDOW 0 24 56 Left 2
WINDOW 3 24 8 Left 2
SYMATTR InstName C3
SYMATTR Value 1n
SYMBOL res -320 192 R90
WINDOW 0 0 56 VBottom 2
WINDOW 3 32 56 VTop 2
SYMATTR InstName R10
SYMATTR Value 1k
TEXT 488 -112 Left 2 !.tran 0 6m 2m
TEXT 752 -136 Left 2 !.lib tlv9052.lib
