Version 4.1
SHEET 1 880 680
WIRE 384 128 336 128
WIRE 496 128 464 128
WIRE -128 256 -128 208
WIRE -32 256 -128 256
WIRE 48 256 -32 256
WIRE 192 256 128 256
WIRE 224 256 192 256
WIRE 336 256 336 128
WIRE 336 256 304 256
WIRE 368 256 336 256
WIRE 192 272 192 256
WIRE 496 272 496 128
WIRE 496 272 432 272
WIRE 528 272 496 272
WIRE 368 288 336 288
WIRE -32 304 -32 256
WIRE -128 320 -128 256
WIRE 336 336 336 288
WIRE 640 368 640 336
WIRE 784 368 784 320
WIRE -32 400 -32 368
WIRE 640 480 640 448
WIRE 784 496 784 448
FLAG 784 320 V+
FLAG 784 496 0
FLAG 640 336 V-
FLAG 640 480 0
FLAG -32 400 0
FLAG 192 336 0
FLAG 528 272 out
FLAG 400 304 V-
FLAG 400 240 V+
FLAG 336 336 0
FLAG -288 320 0
FLAG -288 208 0
SYMBOL voltage 784 352 R0
SYMATTR InstName V1
SYMATTR Value 2.7
SYMBOL voltage 640 464 R180
WINDOW 0 24 96 Left 2
WINDOW 3 24 16 Left 2
SYMATTR InstName V2
SYMATTR Value 3.3
SYMBOL res -112 192 R90
WINDOW 0 0 56 VBottom 2
WINDOW 3 32 56 VTop 2
SYMATTR InstName R1
SYMATTR Value 1k
SYMBOL res -112 304 R90
WINDOW 0 0 56 VBottom 2
WINDOW 3 32 56 VTop 2
SYMATTR InstName R2
SYMATTR Value 1k
SYMBOL diode -48 304 R0
SYMATTR InstName D1
SYMATTR Value BAT54
SYMBOL res 144 240 R90
WINDOW 0 0 56 VBottom 2
WINDOW 3 32 56 VTop 2
SYMATTR InstName R3
SYMATTR Value 1k
SYMBOL cap 176 272 R0
SYMATTR InstName C1
SYMATTR Value 1µ
SYMBOL OpAmps\\opamp2 400 208 R0
SYMATTR InstName U1
SYMATTR Value TLV9052
SYMBOL res 480 112 R90
WINDOW 0 0 56 VBottom 2
WINDOW 3 32 56 VTop 2
SYMATTR InstName R4
SYMATTR Value 10k
SYMBOL res 320 240 R90
WINDOW 0 0 56 VBottom 2
WINDOW 3 32 56 VTop 2
SYMATTR InstName R5
SYMATTR Value 470
SYMBOL voltage -192 208 R90
WINDOW 0 -32 56 VBottom 2
WINDOW 3 32 56 VTop 2
WINDOW 123 0 0 Left 0
WINDOW 39 0 0 Left 0
SYMATTR InstName V3
SYMATTR Value SINE(0 2 60k)
SYMBOL voltage -192 320 R90
WINDOW 0 -32 56 VBottom 2
WINDOW 3 32 56 VTop 2
WINDOW 123 0 0 Left 0
WINDOW 39 0 0 Left 0
SYMATTR InstName V4
SYMATTR Value SINE(0 2 61k)
TEXT 184 0 Left 2 !.tran 0 6m 2m
TEXT 448 -24 Left 2 !.lib tlv9052.lib
