Version 4.1
SHEET 1 880 680
WIRE -48 160 -96 160
WIRE 16 160 -48 160
WIRE 144 160 96 160
WIRE 144 176 144 160
WIRE -48 272 -48 160
WIRE -32 272 -48 272
WIRE 144 288 144 256
WIRE 144 288 32 288
WIRE 192 288 144 288
WIRE 336 288 272 288
WIRE -32 304 -48 304
WIRE 336 336 336 288
WIRE 576 400 576 368
WIRE 720 400 720 352
WIRE -48 432 -48 304
WIRE -48 432 -64 432
WIRE 16 432 -48 432
WIRE 144 432 144 288
WIRE 144 432 96 432
WIRE 336 432 336 400
WIRE 576 512 576 480
WIRE 720 528 720 480
FLAG 0 320 V-
FLAG 0 256 V+
FLAG -144 432 0
FLAG -160 160 0
FLAG 336 432 0
FLAG 720 352 V+
FLAG 720 528 0
FLAG 576 368 V-
FLAG 576 512 0
SYMBOL OpAmps\\opamp2 0 224 R0
SYMATTR InstName U1
SYMATTR Value TLV9052
SYMBOL res 112 144 R90
WINDOW 0 0 56 VBottom 2
WINDOW 3 32 56 VTop 2
SYMATTR InstName R1
SYMATTR Value {R1}
SYMBOL res 112 416 R90
WINDOW 0 0 56 VBottom 2
WINDOW 3 32 56 VTop 2
SYMATTR InstName R2
SYMATTR Value 1k
SYMBOL res -48 416 R90
WINDOW 0 0 56 VBottom 2
WINDOW 3 32 56 VTop 2
SYMATTR InstName R3
SYMATTR Value 1k
SYMBOL cap -96 144 R90
WINDOW 0 0 32 VBottom 2
WINDOW 3 32 32 VTop 2
SYMATTR InstName C1
SYMATTR Value 26.7n
SYMBOL res 160 272 R180
WINDOW 0 36 76 Left 2
WINDOW 3 36 40 Left 2
SYMATTR InstName R4
SYMATTR Value 100
SYMBOL cap 352 400 R180
WINDOW 0 24 56 Left 2
WINDOW 3 24 8 Left 2
SYMATTR InstName C2
SYMATTR Value 1n
SYMBOL res 288 272 R90
WINDOW 0 0 56 VBottom 2
WINDOW 3 32 56 VTop 2
SYMATTR InstName R5
SYMATTR Value 1k
SYMBOL voltage 720 384 R0
SYMATTR InstName V1
SYMATTR Value 2.7
SYMBOL voltage 576 496 R180
WINDOW 0 24 96 Left 2
WINDOW 3 24 16 Left 2
SYMATTR InstName V2
SYMATTR Value 3.3
TEXT 520 48 Left 2 !.lib tlv9052.lib
TEXT 576 128 Left 2 !.tran 0 1.2m 0.2m
TEXT 512 208 Left 2 !.step param R1 list 10 100 1k
